/*---------------------------------------------------------------------------*\
| =========                 |                                                 |
| \\      /  F ield         | OpenFOAM: The Open Source CFD Toolbox           |
|  \\    /   O peration     | Version:  2206                                  |
|   \\  /    A nd           | Website:  www.openfoam.com                      |
|    \\/     M anipulation  |                                                 |
\*---------------------------------------------------------------------------*/
Build  : _8993af73-20221106 OPENFOAM=2206 patch=221104 version=2206
Arch   : "LSB;label=32;scalar=64"
Exec   : blockMesh
Date   : May 27 2024
Time   : 23:01:06
Host   : alejandrolopez
PID    : 688574
I/O    : uncollated
Case   : /home/alejandro_lopez/Projects/FlowLB/test/ejemplos/cavity/cavity_OpenFOAM/cavityClipped
nProcs : 1
trapFpe: Floating point exception trapping enabled (FOAM_SIGFPE).
fileModificationChecking : Monitoring run-time modified files using timeStampMaster (fileModificationSkew 5, maxFileModificationPolls 20)
allowSystemOperations : Allowing user-supplied system call operations

// * * * * * * * * * * * * * * * * * * * * * * * * * * * * * * * * * * * * * //
Create time

Creating block mesh from "system/blockMeshDict"
Creating block edges
No non-planar block faces defined
Creating topology blocks

Creating topology patches - from boundary section

Creating block mesh topology - scaling/transform applied later

Check topology

	Basic statistics
		Number of internal faces : 2
		Number of boundary faces : 14
		Number of defined boundary faces : 14
		Number of undefined boundary faces : 0
	Checking patch -> block consistency

Creating block offsets
Creating merge list (topological search)...

Creating polyMesh from blockMesh
Creating patches
Creating cells
Creating points with scale (0.1 0.1 0.1)
    Block 0 cell size :
        i : 0.005 .. 0.005
        j : 0.005 .. 0.005
        k : 0.01 .. 0.01

    Block 1 cell size :
        i : 0.005 .. 0.005
        j : 0.005 .. 0.005
        k : 0.01 .. 0.01

    Block 2 cell size :
        i : 0.005 .. 0.005
        j : 0.005 .. 0.005
        k : 0.01 .. 0.01


There are no merge patch pairs

Writing polyMesh with 0 cellZones
----------------
Mesh Information
----------------
  boundingBox: (0 0 0) (0.1 0.1 0.01)
  nPoints: 754
  nCells: 336
  nFaces: 1384
  nInternalFaces: 632
----------------
Patches
----------------
  patch 0 (start: 632 size: 20) name: lid
  patch 1 (start: 652 size: 60) name: fixedWalls
  patch 2 (start: 712 size: 672) name: frontAndBack

End

